188
Comment: 2mzx fold ;;;Step 1016;;;Energy -32.4116498579
N      19.5016919544    -1.8416585639     6.3068642815
C      20.4229861163    -1.5601169054     7.4052849829
C      21.2206493682    -2.8058539702     7.7917630148
O      22.0064468504    -2.7913084022     8.7436815482
C      19.7911773693    -0.9451848119     8.6632635971
C      19.1791986220     0.4259476945     8.3837062685
C      18.7213431288     1.2596725290     9.5779277996
O      18.4971415691     2.4483045486     9.4512936809
N      18.5383946615     0.6007325996    10.7557413813
H      18.6250857961    -2.2146144058     6.6661333815
H      21.1747913853    -0.8539553416     7.0315271418
H      19.0320095999    -1.6432005760     9.0450645049
H      20.5711063760    -0.8717721984     9.4285677154
H      19.8959201174     1.0589961352     7.8478450803
H      18.3066323034     0.3311585662     7.7256265446
H      18.8075794201    -0.3576950875    10.9027384160
H      18.2703099866     1.1498145860    11.5587747839
N      21.0083687314    -3.8949309613     7.0359324349
C      21.6739518282    -5.1521060830     7.3083348761
C      23.1936591459    -4.9982587069     7.3166981997
O      23.8652618693    -5.6696975960     8.1026905417
C      21.2395652160    -6.2504018863     6.3005114209
C      21.8824188137    -6.0231494115     4.9550120449
C      23.0934444217    -6.6421748390     4.6378777451
C      21.4343252543    -4.9940284366     4.1211162999
C      23.8918374698    -6.1718844743     3.6033001118
C      22.2264045554    -4.5044207479     3.0921580385
C      23.4970398339    -5.0458744699     2.8778268832
O      24.3685660505    -4.4951926872     1.9991988452
H      20.4485359531    -3.7542184134     6.2035764555
H      21.4218019374    -5.4704605030     8.3251628986
H      21.5456412377    -7.2145387105     6.7177056965
H      20.1445549516    -6.2500639585     6.2461172119
H      23.4554054324    -7.4631199506     5.2536082372
H      20.4522809553    -4.5486487447     4.2757073329
H      24.8552029348    -6.6241571418     3.3910348267
H      21.8921629275    -3.6714792685     2.4836148367
H      24.2357992380    -3.5274822110     2.0232019032
N      23.7435421972    -4.1348141267     6.4433775281
C      25.1874771846    -4.0224684112     6.3609906570
C      25.7722822535    -3.3347505648     7.5909836322
O      26.9758852663    -3.4452673834     7.8213859859
C      25.7291204247    -3.3631266356     5.0875961999
C      25.3857778383    -1.8780396240     4.8660528227
C      24.0210011492    -1.7026579748     4.2342456562
O      23.7983884033    -1.9704817392     3.0582811127
N      23.0192834231    -1.3212960086     5.0803899287
H      23.1465644513    -3.6446846808     5.7906573305
H      25.5919773710    -5.0380166915     6.3825858808
H      26.8167206057    -3.4460915625     5.1674040853
H      25.4297722347    -3.9493220838     4.2147437058
H      25.4738468997    -1.3070607105     5.7973144972
H      26.1071507772    -1.4660545782     4.1558150929
H      23.2440884510    -0.8041711089     5.9235208711
H      22.1332347433    -1.1078684901     4.6422275361
N      24.9323537249    -2.6070295409     8.3452099673
C      25.3921164823    -1.9920588915     9.5690757953
C      25.4340506930    -2.9759042278    10.7459749422
O      26.1230300158    -2.7362199059    11.7308471966
C      24.5564663547    -0.7466886389     9.8892424222
C      24.4909231761     0.1879072567     8.7007117032
C      25.6493582031     0.5976204978     8.0313485394
C      23.2529528513     0.6250817004     8.2227849433
C      25.5592664673     1.4085729171     6.9031189854
C      23.1609161710     1.4469821870     7.1000248138
C      24.3189820067     1.8320628646     6.4280592695
H      23.9332015157    -2.6122528504     8.1570119543
H      26.4321100605    -1.7069048371     9.4134637605
H      23.5442305001    -1.0498280170    10.1783588419
H      25.0121809076    -0.2586563942    10.7573319990
H      26.6358966052     0.2805662274     8.3695395022
H      22.3519557743     0.3357917917     8.7557987876
H      26.4692649558     1.7133999307     6.3958597444
H      22.1895344829     1.7967503220     6.7588837858
H      24.2580489047     2.4657715878     5.5486487786
N      24.6967787830    -4.1023825700    10.6088242908
C      24.9506014806    -5.2626671364    11.4447148271
C      26.2824212112    -5.9070583591    11.0176884561
O      27.1629706674    -6.1987465276    11.8220525093
C      23.7505082705    -6.2342580453    11.3624510925
C      23.5297744580    -7.0309235795    12.6120503385
C      22.5840889570    -6.7366956685    13.5557789790
C      24.2397129543    -8.1875505808    13.0966701058
N      22.6586278435    -7.6313976498    14.5968251612
C      23.6628602844    -8.5360682026    14.3383694735
C      25.3005694785    -8.9654752079    12.6072725558
C      24.1069836278    -9.6241080275    15.0953257248
C      25.7459937641   -10.0472060356    13.3448456260
C      25.1531676560   -10.3683197256    14.5817733028
H      24.1903438048    -4.2525695636     9.7462197176
H      25.0804271367    -4.9216163737    12.4699315572
H      22.8621733463    -5.6143483651    11.1933298361
H      23.8497988180    -6.8771473875    10.4804287452
H      21.8520359000    -5.9403281800    13.5662128238
H      22.0696906328    -7.6304792530    15.4119987430
H      25.7788768635    -8.7099280985    11.6680397056
H      23.6500077901    -9.8734070810    16.0488917143
H      26.5747190544   -10.6505959829    12.9863376274
H      25.5313962534   -11.2187095347    15.1402432382
N      26.4283452590    -6.1140190191     9.6869253131
C      27.6278668676    -6.7329880227     9.1599384310
C      28.9031770420    -5.9911155942     9.5576733735
O      29.9380506312    -6.6178634199     9.7460132788
C      27.5715978107    -6.8784378424     7.6349780165
C      26.4148061855    -7.7220384026     7.0705239873
C      26.2802616768    -9.1434721978     7.6375968225
C      25.4788865219    -9.2359993718     8.9368194293
N      25.3118251970   -10.6309591923     9.3329918093
H      25.6621606520    -5.8990267352     9.0561862434
H      27.7545928926    -7.7271496814     9.5954293378
H      27.5596513045    -5.8764581070     7.1868674639
H      28.5193775797    -7.3440068888     7.3402784851
H      25.4582601749    -7.1994976085     7.1940308858
H      26.5863875909    -7.7821149269     5.9869127426
H      25.7770541052    -9.7887736659     6.9088890789
H      27.2780864777    -9.5759046161     7.7964797988
H      25.9606855605    -8.6298774180     9.7151809968
H      24.4869448393    -8.7922303299     8.7749125762
H      24.7466673537   -10.6709472389    10.1784147799
H      26.2273160608   -10.9885659692     9.6033546425
N      28.8298821694    -4.6399272261     9.6249353419
C      30.0361117514    -3.8434556312     9.7398340747
C      30.4860087841    -3.5996907181    11.1878751496
O      31.5587602866    -3.0481925056    11.3906047791
C      29.9528271811    -2.5577068149     8.9090208421
C      29.0394622263    -1.4157519599     9.3409403989
O      28.8153854897    -0.4885465738     8.5708747794
N      28.4974624482    -1.4599429933    10.5790980631
H      27.9981535338    -4.1838926636     9.2577627212
H      30.8601333726    -4.4434776740     9.3378384222
H      30.9571651470    -2.1305375817     8.8343861152
H      29.6395386739    -2.8210993855     7.8951290014
H      28.6079956014    -2.2154749447    11.2399617963
H      27.9510989691    -0.6684964719    10.8822235827
N      29.6370402349    -4.0163722164    12.1704411942
C      30.1366562771    -4.1406858300    13.5335113475
C      30.6325622887    -5.5578926250    13.8485791231
O      31.6313425460    -5.7186488808    14.5334279693
C      29.1510108152    -3.6388446069    14.6221218352
C      28.1588008889    -4.6676820423    15.1167325445
C      26.8660703491    -4.7373943033    14.6016827349
C      28.5584051515    -5.6163464884    16.0651540501
C      25.9998145180    -5.7524696866    15.0023093648
C      27.7011001844    -6.6386936350    16.4536332525
C      26.4178710513    -6.7137556819    15.9152179816
H      28.8093739551    -4.5320144444    11.8878622962
H      31.0298732114    -3.5172667656    13.5681970997
H      29.7664461787    -3.3041903127    15.4637398488
H      28.6332141918    -2.7592699031    14.2249355620
H      26.5523878859    -4.0043858372    13.8616979857
H      29.5672656641    -5.5758546980    16.4683268268
H      24.9976160043    -5.8069376882    14.5865879166
H      28.0356322527    -7.3809670887    17.1725654978
H      25.7485254784    -7.5212153777    16.1962205510
N      29.8995571872    -6.5950205858    13.3638341803
C      30.2664414961    -7.9603646287    13.7029865934
C      31.5762718140    -8.3695949513    13.0095490355
O      32.3032585147    -9.2323149717    13.4691010135
C      29.1274331740    -8.9262684810    13.3410937114
C      28.9098796031    -9.0675312200    11.8325326733
C      28.6960638463   -10.4743362198    11.3239920593
O      28.4713667524   -11.4567105293    12.0054197661
N      28.7207015245   -10.5414328228     9.9331999668
H      28.9776840583    -6.4364633235    12.9709889951
H      30.4693719197    -8.0246906033    14.7763189682
H      29.3644232646    -9.9053731690    13.7672554496
H      28.2122804763    -8.5764327409    13.8313971139
H      28.0530045309    -8.4675265228    11.5137989064
H      29.7614585597    -8.6692975631    11.2746571438
H      29.3514217229    -9.8764899467     9.4958950448
H      28.8362573195   -11.4858199101     9.5843876106
N      31.7739034055    -7.7455553681    11.8178418247
C      32.9589067539    -7.8931663243    11.0230472766
C      33.7169760226    -6.5672126507    10.9661485725
O      34.9160953648    -6.4433814731    10.9369133406
C      32.6032788937    -8.3717625309     9.5955890109
O      31.7764579903    -9.5241022945     9.7338923316
C      33.8513223253    -8.6761244000     8.7767698254
H      31.1402814572    -7.0019078609    11.5533410890
H      33.5962414703    -8.6351027977    11.5098118823
H      32.0155581028    -7.5815649818     9.1118533183
H      32.0567942340   -10.1673323045     9.0742914648
H      33.5768023930    -9.0359724693     7.7776790976
H      34.4585648690    -9.4401239341     9.2748278783
H      34.4720289049    -7.7855605027     8.6526343350
H      19.2680857478    -0.9893094069     5.8088176194
O      32.8565459194    -5.5359362692    10.9128655646
H      33.3331656895    -4.6915693998    10.9654345216



188
Comment: 2mzx line ;;;Step 829;;;Energy -32.3718786547
N       2.1866353149     2.7165480724    -0.4614973313
C       3.2894314138     1.9145902177     0.0501932924
C       3.0656189386     1.7305415512     1.5465333040
O       2.7428311410     2.6693690824     2.2613701415
C       4.6765854759     2.5553245092    -0.1621148266
H       4.8093652807     2.7460621289    -1.2322097240
H       4.6800709317     3.5314398566     0.3373484769
C       5.8715910063     1.7271387561     0.3122801142
H       5.9487373655     1.7129568519     1.4061210798
H       5.7628428781     0.6781658025     0.0004947285
C       7.1736884944     2.2500041817    -0.2984863432
O       7.1870055778     2.8979056769    -1.3354880335
H       2.0355373641     3.4810621065     0.1933943346
H       3.2739158712     0.9350178647    -0.4483063592
H       2.4517914099     3.1298406115    -1.3513373756
N       3.3085637924     0.4813081558     2.0313212813
C       3.5912032159     0.2675560324     3.4310946970
C       4.9901174950    -0.3362703036     3.5232658710
O       5.3750078894    -1.1648787687     2.7015816236
C       2.5748793787    -0.6770368882     4.1160110440
H       1.5915527272    -0.1986832111     4.0653792198
H       2.5247477451    -1.6071796956     3.5396190346
C       2.9908004554    -0.9556885441     5.5404394300
C       3.7349130200    -2.0953960478     5.8599967732
H       3.9173551099    -2.8439837950     5.0928307954
C       4.2843260050    -2.2718581974     7.1228574031
H       4.8733346195    -3.1506115457     7.3644813467
C       4.0943000055    -1.2960174008     8.0999687003
C       3.3364065853    -0.1633949176     7.8106695385
H       3.1774660589     0.5977744063     8.5709642245
C       2.7945136196    -0.0015878644     6.5393323263
H       2.2216807543     0.8961282125     6.3180732225
O       4.6665122098    -1.5115424025     9.3179987137
H       4.5667853502    -0.7262840372     9.8697663964
H       3.5555077732     1.2451003057     3.9202643151
H       3.7166187362    -0.2089892873     1.4133406665
N       5.7384978585     0.0779450333     4.5618675056
C       6.9870663013    -0.5638739712     4.8913130969
C       7.2197826158    -0.3249689917     6.3814007291
O       6.6789449268     0.6024659599     6.9739640064
C       8.1154497583     0.0141627137     4.0141876510
H       7.7652186231    -0.0730299506     2.9827366160
H       8.2206689654     1.0821437929     4.2351600448
C       9.4618351972    -0.6892172549     4.1309471228
H       9.9053225762    -0.5810530342     5.1252960881
H       9.3392749293    -1.7694906620     3.9643157236
C      10.4504738457    -0.1815245856     3.0901766574
O      10.1048058232     0.4321173907     2.0887900765
H       5.3536844864     0.6763937350     5.2833412098
H       6.8919876049    -1.6398125196     4.6953585821
N       8.0805421595    -1.1796589698     6.9806678753
C       8.6862097664    -0.8306444939     8.2446630437
C      10.1829734971    -1.1150273323     8.1100724741
O      10.6228269807    -1.6995882970     7.1164841666
C       8.0337965680    -1.5452661822     9.4538399423
C       8.0748031499    -0.6928752707    10.6990650063
C       8.8966338433    -0.9969643346    11.7830488942
C       8.9343288734    -0.1646191729    12.9009111155
C       8.1434950667     0.9773761285    12.9471590170
C       7.3217347958     1.2939429397    11.8654377690
C       7.2913605875     0.4675032134    10.7491033908
H       8.6212927600    -1.8228213796     6.4156094664
H       8.5468051240     0.2475978311     8.3763660532
H       8.5103116915    -2.5171988151     9.6240554101
H       6.9902222320    -1.7348232723     9.1861635575
H       9.5265046224    -1.8819341179    11.7498710256
H       9.5945300413    -0.4083428657    13.7270430602
H       8.1719209782     1.6246827031    13.8184855432
H       6.7123913865     2.1928683377    11.8899876107
H       6.6771993655     0.7257508399     9.8875577236
N      10.9737398572    -0.6783310692     9.1008331907
C      12.4104915494    -0.8234100165     9.0251487511
C      12.9530090920    -0.6148453155    10.4420274088
O      12.2090843785    -0.3246749781    11.3737295229
C      13.0235853489     0.1834241365     8.0108175425
H      13.1249055555     1.1626858123     8.4916787761
H      12.2943098515     0.2998829764     7.2026041476
C      14.3252911397    -0.2633886450     7.4236869761
C      15.5757889905     0.2404877277     7.6550052165
N      16.5023309858    -0.4227892516     6.8862014617
H      17.4986267630    -0.3068312845     6.9688187156
C      15.8647402302    -1.3922250663     6.1459965328
C      14.4891837054    -1.3204211829     6.4574550818
C      13.5939010700    -2.2076115181     5.8388247345
H      12.5403026186    -2.1932373979     6.1103893212
C      14.0909729158    -3.1182320462     4.9205296707
H      13.4148674609    -3.8156483319     4.4348370183
C      15.4648423537    -3.1682224369     4.6159792613
H      15.8228293205    -3.8960634804     3.8942206246
C      16.3691003096    -2.3137861190     5.2243750646
H      17.4293094168    -2.3598463063     4.9932784575
H      15.8883670478     1.0202395363     8.3337729109
H      10.6026185104    -0.2837509802     9.9604574849
H      12.6467297421    -1.8407038272     8.6922981951
N      14.2883163291    -0.7435858066    10.5734007514
C      14.9622444567    -0.4717435861    11.8239085453
C      16.3283937244     0.1251783971    11.4868265715
O      16.9236809581    -0.1742411301    10.4575628157
C      15.0984729950    -1.7491305304    12.6800726872
C      15.7777976902    -1.5226792540    14.0303303874
C      15.7171526255    -2.7249485627    14.9709658562
C      16.4990218754    -2.4512686865    16.2529637203
N      16.3777349912    -3.5467002674    17.2088479784
H      14.3583687858     0.2551484976    12.3773348395
H      15.6459151817    -2.5010955150    12.0984420760
H      14.0814394788    -2.1295258545    12.8293125922
H      15.3161490698    -0.6614941492    14.5347964103
H      16.8290095012    -1.2505941754    13.8777255409
H      16.1321465575    -3.6111312064    14.4691841987
H      14.6782700402    -2.9637993233    15.2276149994
H      16.0963668879    -1.5477209564    16.7267675548
H      17.5437540621    -2.2156167100    15.9841448064
H      16.8926460243    -3.3071398404    18.0527001492
H      16.8294320553    -4.3761065968    16.8309468116
H      14.8787356922    -0.9222663597     9.7678840487
N      16.8248447866     0.9829740203    12.4097455526
C      18.2314204987     1.3207057968    12.4567324939
C      18.6538419061     1.1619752275    13.9272181539
O      17.7968512530     1.1073311610    14.8119097184
C      18.4889030989     2.7321134603    11.9110801804
H      17.9258384841     2.8318047405    10.9758437101
H      18.1048731946     3.4919264251    12.6020735326
C      19.9607757301     2.9728670894    11.6003142807
O      20.7835447438     2.0678231453    11.5794833203
N      20.2883374495     4.2544236364    11.3073372412
H      19.6274083446     5.0112740737    11.3715188828
H      21.2548269716     4.4678793866    11.1108268649
H      18.7855685400     0.6135705591    11.8338668899
H      16.3680663935     1.0535142200    13.3136936309
N      19.9672089936     1.0622409710    14.1789594524
C      20.4090011653     0.7762731714    15.5230415273
C      21.8910214289     1.1132809965    15.6241073852
O      22.5943873354     1.2575185749    14.6337365190
C      20.1780026181    -0.7196743930    15.8829857117
C      19.9339778615    -0.9679805426    17.3510106001
C      20.8241121326    -1.6974245610    18.1392968140
C      20.5398130184    -1.9495338283    19.4805482778
C      19.3667889448    -1.4640368029    20.0486241164
C      18.4795339739    -0.7178824944    19.2734603409
C      18.7627828833    -0.4709476717    17.9352405013
H      20.6598885708     1.1452156525    13.4367822416
H      19.8308650782     1.3970686098    16.2146886356
H      21.0224720652    -1.3148552616    15.5183285203
H      19.2934332948    -1.0413857523    15.3249758561
H      21.7482205206    -2.0783466443    17.7117969498
H      21.2406648175    -2.5302881052    20.0726262093
H      19.1442532810    -1.6620522065    21.0929960336
H      17.5642199220    -0.3300628929    19.7110006521
H      18.0704941905     0.0994822750    17.3196930150
N      22.3688120654     1.1734269477    16.8882038969
C      23.7881402434     1.2591051510    17.1468807471
C      24.0316960963     0.5341495774    18.4623097729
O      23.1811290912     0.5206782934    19.3526257234
C      24.2735168006     2.7192089749    17.2073421630
C      25.7904559056     2.8514259333    17.2865264911
C      26.2344612188     4.3091523034    17.2059170701
O      25.4743537061     5.2189392002    16.9306095588
N      27.5553136288     4.5112978928    17.4754633534
H      24.3080343319     0.7481108852    16.3276822859
H      21.7736794165     0.9883127913    17.6871116462
H      23.7998005341     3.2230128008    18.0560474751
H      23.9180732759     3.2148820368    16.3010704948
H      26.2613623679     2.3105759850    16.4526815650
H      26.1915771048     2.4103831908    18.2073091347
H      27.9288906345     5.4403625567    17.3557667401
H      28.1980656371     3.7491028366    17.6183681643
N      25.2295857466    -0.0666748470    18.6018086566
C      25.6408840733    -0.6565003639    19.8539396361
C      27.1632244512    -0.5231202484    19.9233786269
O      27.8345059196    -0.3061469546    18.9471817275
C      25.4258993575    -2.7304066844    21.3565354387
C      25.1436996468    -2.1243317659    19.9828033360
O      23.7686814054    -2.1945623817    19.6906348953
H      24.9110720884    -3.6914628698    21.4196260245
H      25.0268930207    -2.0935483117    22.1576070614
H      26.4925338949    -2.9121070464    21.5251263138
H      25.6570660113    -2.7160055130    19.2140672529
H      25.1827748542    -0.0737512474    20.6655429213
H      23.3449877004    -1.3399133829    19.8848710430
H      25.9314856087    -0.0275566583    17.8741162649
O      27.7294678550    -0.6566772316    21.1289770429
H      27.0599977184    -0.8025360977    21.8119317793
N      11.7493904782    -0.4686289061     3.3481566328
H      12.4438125638    -0.2067384475     2.6654951804
H      12.0519425558    -0.9926804583     4.1565352855
N       8.3079531854     1.9458024247     0.3780749912
H       9.1835724979     2.1853520728    -0.0616473310
H       8.3735321073     1.3083886849     1.1599226585
