389
Comment: ;;;Step 125;;;Energy -50.4604642265
H   -5.81748241185  -6.87997178801  -6.37087044265
H   -6.32873692829  -7.12240645375  -5.87521845934
O   -5.76563115368  -5.93533313107  -2.89162570432
H   -5.79470686452  -6.02655581557  -1.92328266798
H   -5.85190523276  -4.98808473124  -3.09940031126
O   -5.44075209255  -5.72784947655  -0.291638906454
H   -5.6734661112  -5.85799110366  0.651491145641
H   -5.44799503412  -4.74674695534  -0.376729179203
O   -6.00650617872  -5.40014395512  2.41567276281
H   -5.28954330761  -5.85789284017  2.8738834485
H   -5.58434091284  -4.39087577323  2.28729959573
O   -5.96983147132  -6.19259550373  6.18186310817
H   -6.13935970638  -5.23369853938  6.24270782922
H   -6.31966493755  -6.46679236659  5.33101262908
C   -8.02670038558  -2.80906039394  -7.40714562466
O   -7.58779367106  -3.83239731433  -7.57548945626
O   -5.57521612027  -3.31053519329  -3.07036402741
H   -5.70129252501  -3.32622252254  -2.09536112836
H   -5.83051226595  -2.38748340702  -3.28818377139
O   -6.30871682601  -3.11877869576  -0.518429267226
H   -6.24966977065  -3.1918518146  0.441962157001
H   -5.84380309644  -2.10059943618  -0.598968681988
O   -5.29032419392  -3.29341302817  2.16069206133
H   -5.79708300401  -2.90140771013  2.88570540588
H   -4.27128118732  -3.38056383476  2.58963489064
N   -6.82598509081  -3.48630946568  6.23028632707
H   -6.98865961704  -2.98350852561  7.09584867155
H   -6.03513309744  -3.02601765736  5.78090960876
H   -7.631198874  -3.30034900932  5.64233722293
O   -7.04207283118  0.147369039022  -5.83444049411
H   -6.43170347065  -0.0251792582217  -5.1111932117
H   -6.53908786598  -0.0614988205493  -6.62305823002
O   -5.71074560121  -0.555645083485  -3.23802638032
H   -5.69517391127  0.3754283591  -2.9615445025
H   -4.64355901888  -0.711535753457  -3.54053823108
O   -5.34246522855  -1.10785181426  -0.585767787244
H   -5.97503029347  -0.546248650238  -0.120026282403
H   -5.3377169936  -0.878317877272  -1.51309249751
O   -6.94419680984  0.0584162144446  1.71815199576
H   -6.48342538815  -0.390455840941  2.43376896289
H   -6.61741648723  0.965007805561  1.77706974254
O   -6.61930541778  -0.117930443426  6.81081261868
H   -6.48359059814  0.849029210956  6.80467103336
H   -6.26773535949  -0.378103427242  5.95905295513
N   -6.26431946807  3.22893919509  -5.69019790619
H   -6.62893844841  4.13410270731  -6.0120720207
H   -5.3135538881  3.18260616698  -6.07999042309
H   -6.79859015776  2.50132633952  -6.17649475826
O   -5.96198413599  2.14191585052  -3.09882986329
H   -5.05785424784  2.4292619689  -2.88903431562
H   -6.13957839225  2.4564606619  -4.01574366674
H   -6.0131217513  2.70202892509  -0.486827396176
H   -5.51363143375  2.77507060963  0.102572870935
O   -6.15435535102  2.63158303998  2.72170094622
H   -6.36768154966  2.56417328843  3.65636890345
H   -6.16801912763  3.58453125239  2.54742413716
N   -5.96205766194  2.56876261746  6.1926101493
H   -6.3088040717  3.47775320787  6.52383500251
H   -4.94160422973  2.62190764137  6.30014704625
H   -6.12251830987  2.56794093332  5.19541553807
N   -6.11681163897  5.81346884164  -7.43070174226
H   -6.2160765977  6.74513443952  -7.04660145434
H   -5.13141881911  5.70810499402  -7.66546792699
H   -6.62663900923  5.80368137879  -8.30494869119
C   -7.88778143281  6.29513290252  -2.59769386034
O   -7.39858295608  6.19102812644  -1.58087970976
O   -5.72501463159  6.46424956562  1.03339225162
H   -4.90781783673  6.28201745114  0.568359010636
H   -6.39749843181  6.01282399601  0.519578740688
O   -5.28358884751  5.31677789891  2.87849680782
H   -5.69420252678  5.84159687856  3.57672462391
H   -5.56860261596  5.86610639152  1.91511627656
O   -6.5207082028  5.7932893396  6.17304893148
H   -5.67028870849  5.97994850033  6.58129654175
H   -6.38155537495  5.94877595876  5.23906987157
O   -3.09715247597  -6.52512169532  -6.34124347584
H   -2.85688347944  -5.92638027963  -5.62392849689
H   -2.26876202817  -6.68429772787  -6.80116364567
O   -3.17420899962  -6.04690181498  -3.19072406188
H   -3.10009507553  -4.92610509415  -3.22724999628
H   -4.11991113554  -6.11051288289  -3.24340744985
O   -2.78971062851  -6.15238721978  -0.962949685545
H   -3.66824570895  -6.17710589861  -0.580375299629
H   -3.05464912599  -5.98529812697  -1.99482358937
O   -3.4491850659  -6.21551757964  2.6789630944
H   -3.15579691593  -5.59168834473  3.36089458193
H   -3.39053560428  -5.7291929259  1.84119215708
O   -3.20253266026  -6.22401945736  6.36501691228
H   -3.69950265737  -6.1194047894  7.18139013311
H   -3.89236926898  -6.38372288631  5.71594078316
N   -2.8738434993  -3.57875863551  -6.10601486135
H   -3.39699083543  -2.71238601888  -5.99345966612
H   -1.95010829071  -3.33301014449  -6.46877550994
H   -3.34314608065  -4.10361661715  -6.83974703292
O   -2.90583262398  -3.85008971624  -3.4248449501
H   -3.77094901334  -3.46990527643  -3.2712867955
H   -2.78417183746  -3.84332591886  -4.39679938461
H   -2.99478456349  -2.31266771512  -0.989129406204
C   -3.35626939109  -3.23281818298  -0.534415767653
H   -4.22943884581  -3.59469768379  -1.08433771041
H   -2.59893309013  -4.00700636397  -0.574815532603
H   -3.67428036002  -3.05951975353  0.49631391197
O   -3.24459622223  -3.43286425363  3.0677748319
H   -3.26109011955  -2.64287329837  3.6205990429
H   -2.73919471028  -3.18492336695  2.27991878418
H   -2.32484883675  -2.46337544182  5.7020258818
C   -2.80846451449  -3.09103221303  6.44401057068
H   -3.25628189596  -3.95503156226  5.95644220482
H   -2.03866362615  -3.44107383929  7.12629411583
H   -3.55966456079  -2.52844932952  6.99103375026
C   -3.39094160343  0.349435275168  -8.14912105138
O   -3.41393064585  0.154919845781  -7.02943899893
O   -3.62260880478  -0.983037595487  -3.8389766986
H   -3.26727572271  -0.93706164495  -2.94286810264
H   -3.39484161285  -0.199331800932  -4.36031946705
O   -2.8063443517  0.208417963284  -1.31898160022
H   -2.53981603045  0.650763698921  -0.499435663906
H   -3.34799501177  0.8853497058  -1.77056348359
C   -3.77804742259  -0.346018360623  2.07547690837
O   -4.36697764724  -0.632594140195  3.0641012418
C   -2.34775756132  0.670975731677  8.67474753565
O   -2.8185161531  -0.175794898793  9.26948360931
O   -3.30062819201  3.18624834286  -6.52612319039
H   -2.94484704696  2.96053516651  -5.66474014371
H   -3.07374411407  4.27157300783  -6.59367705518
O   -3.26115308766  2.35639961022  -2.55379119139
H   -2.87249348794  2.7186014244  -1.70881007871
H   -2.52712768221  2.13355409043  -3.17033856908
O   -2.46857013853  2.74030606934  -0.164036551255
H   -2.91101568362  3.58758244377  0.0317986493063
H   -1.51229215854  2.95139098245  -0.231186493083
N   -2.89643123509  2.71865160504  3.17979807636
H   -2.70879459356  3.72947106388  3.1861594438
H   -2.30284533812  2.33309146523  2.44255954767
H   -3.86080591528  2.59582425084  2.8611458024
O   -2.69960229843  2.66145311086  5.9459575007
H   -2.6611101162  3.62002007176  6.02685700502
H   -2.70932010875  2.5084030149  4.97873358403
O   -2.94118548757  5.33906564572  -6.68566184019
H   -2.58749693798  5.63064826345  -5.85019048546
H   -2.20180532293  5.42276522574  -7.28855803515
N   -2.95840328643  5.69381917776  -2.58503253581
H   -2.55137525925  6.62191410319  -2.57550647865
H   -2.23674855555  5.02032144965  -2.84334210343
H   -3.69474098243  5.6511783618  -3.28023569054
O   -3.34870415928  5.14503769898  -0.0430318033824
H   -2.48076789361  5.51539957655  0.2105653315
H   -3.35828315912  5.22297306581  -1.04846159987
O   -2.58644443508  6.01995496396  3.09213769286
H   -2.8828534801  6.13566999013  4.00008231476
H   -3.43271043972  5.90298270881  2.63494390775
O   -3.67194062106  5.23163424766  6.08827193383
H   -3.16900662776  5.75727887743  6.73403825936
H   -3.56381188917  5.66335939753  5.23313530856
O   -0.308270503936  -6.18129816485  -6.51284187798
H   -0.117218806261  -6.04930362405  -5.57364196144
H   -0.188377782204  -5.32807181559  -6.94610363098
O   -0.45821331841  -6.28682423094  -3.54744043984
H   -0.576401258533  -5.39703336588  -3.18057222586
H   -1.36333552712  -6.61939284886  -3.58433407668
O   -0.0445459605504  -6.24507441915  -0.635400176545
H   -0.975431359283  -6.00514694846  -0.72608785327
H   0.101648696372  -6.89631284488  -1.32247771556
C   -0.090921110949  -7.96589248047  2.8698279996
O   -0.0362605760529  -8.29251796446  3.94919472562
N   -0.0871673052841  -6.43761352125  7.21099119277
H   -0.0554863339423  -5.41439424297  7.21252056975
H   0.683533406771  -6.74801065702  6.61156584987
H   -0.971203739328  -6.70209149131  6.77047839349
O   0.339083966843  -3.45645288787  -7.0781651707
H   0.510695240545  -3.46548946765  -6.12484035796
H   1.22099993098  -3.25326843777  -7.42299999543
H   0.50784305605  -3.11488133639  -3.59330019328
H   -0.229710061024  -2.88552897919  -3.60493564683
C   0.307619260048  -3.18047851125  0.0811298365641
O   0.0791077704904  -3.22802309189  1.21768234838
O   -0.676158681639  -2.85800946678  4.00235731244
H   -0.561938587549  -1.88558976773  3.88602986677
H   -0.313880071755  -3.27878427953  3.20752463133
O   0.232950961109  -3.18628999841  6.57762199899
H   0.173810320643  -2.23679678874  6.71807893131
H   0.183612085431  -3.26090833275  5.61903738173
H   0.617835842218  0.520200635083  -6.26800031131
C   0.294092717397  -0.478465001982  -6.00728622455
H   0.134291904434  -1.05375619813  -6.91241376416
H   1.03903092644  -0.953885767999  -5.38166992017
H   -0.640534667896  -0.420820639573  -5.45929671096
O   -1.04067321796  0.57666577692  -2.66144854363
H   -1.86893577896  0.41153986356  -1.94702915745
H   -1.135262092  -0.113590560032  -3.31623067715
O   -0.0207097784782  0.228693830766  -0.277556486807
H   0.0681309389244  1.32980217029  -0.0595998802153
H   -0.0577927777987  0.284246684341  -1.24733250802
N   0.0117057509369  -0.209198841685  3.36269131657
H   0.52949790755  0.65237228239  3.56863825079
H   0.583300928953  -0.683988624977  2.66495214333
H   -0.825537118804  0.105564015906  2.87247752776
O   0.216125289608  -0.496186724507  6.1512433311
H   1.33770406453  -0.345425296958  6.28863088694
H   0.0686337798749  -0.463871001899  5.18358379392
H   0.460725162298  4.08588893705  -7.11757781137
C   -0.0661455385366  3.44601052931  -6.41473150098
H   -0.933621525656  3.0109094267  -6.90784969403
H   0.601969665794  2.65052249396  -6.08749703784
H   -0.372020426442  4.02262347564  -5.54406874894
H   0.285471542492  4.124253824  -3.16124558702
C   0.0234837040495  3.09448665213  -2.92638581966
H   -0.606792265465  2.69786216046  -3.71556891871
H   0.920042187682  2.48488380948  -2.84642927363
H   -0.495500539653  3.04960996202  -1.97734460081
O   0.253422821876  2.43471211682  0.0419724200798
H   0.355268339976  2.66425554462  1.1402621643
H   1.32940635654  2.34412543088  -0.234673648628
O   0.377843533791  2.86449966688  2.26815168932
H   0.119493118221  3.80480724614  2.36013609101
H   1.49878674547  3.00057254939  2.35916587961
H   0.905781679276  2.96876696845  4.80622435365
C   0.361736589827  2.89879762466  5.73930988218
H   -0.419580630911  2.14564875047  5.67269923318
H   1.03218897975  2.65139444488  6.55786270652
H   -0.108395156721  3.84656325825  5.97175903109
O   -0.400886024117  6.2626542163  -7.64176782892
H   -0.134925817813  6.65110554861  -6.80263940526
H   -0.301225646287  6.97012415961  -8.28275557774
C   0.747817381343  8.86772956008  -3.3742043849
O   -0.124249616718  8.21250339222  -3.09070505076
O   -0.713085035683  5.12829788463  0.0196636108394
H   -0.427480168883  5.29464610415  0.939931827795
H   0.0895043939747  4.71623531961  -0.343174752627
O   0.11138878305  5.27809102629  2.79748864913
H   0.396877129351  5.07175941807  3.71561349787
H   -0.855548749605  5.36378347577  2.957281341
N   -0.299592068748  5.98454032689  6.09506535614
H   -0.518495685129  6.47213187638  6.95751551426
H   0.664535365789  6.21934564527  5.87408273397
H   -0.87636806629  6.39642977956  5.3678332574
H   2.38889514081  -6.28950332933  -6.43834922266
H   3.11833011477  -6.06459095727  -6.30380620731
N   2.77964136841  -6.48650348186  -2.64481617632
H   3.2135986868  -5.64447899277  -3.03811860889
H   3.35093519474  -7.26936911061  -2.9543660941
H   1.87502041211  -6.56919923206  -3.11754361733
O   3.15524640808  -5.78346015922  0.0020336978474
H   2.78822847056  -4.88961873927  -0.0349716975557
H   2.89223114743  -6.16028719242  -0.865432214035
O   3.34020700529  -6.69054219743  2.67121918284
H   4.25483402345  -6.41016066742  2.77217423573
H   3.2294011805  -6.65426690917  1.71690635553
N   2.77285191677  -6.28341766878  5.96745979657
H   2.85802073031  -5.28027367551  6.16560572416
H   3.57075104021  -6.71334269665  6.4396101462
H   2.96080783438  -6.38555895745  4.96615407678
O   2.93311356032  -2.7755109847  -6.33462132135
H   2.57532448934  -2.50777397122  -5.47682419005
H   3.18414531624  -1.7771648343  -6.81104962332
O   4.06414597231  -3.64203683395  -3.70922984555
H   3.90949671931  -3.01139690491  -2.99891392669
H   3.66815292111  -3.17885058045  -4.44127762292
O   2.91763742285  -3.14765083185  -0.763232745061
H   3.23957751335  -2.27153853692  -0.502337603417
H   2.82098439608  -3.08489566164  -1.72000124872
C   2.74494793635  -3.37601107843  2.60089576564
O   2.75257918372  -3.18809446531  3.74172178215
O   2.93352098874  -3.11701758954  6.6710250556
H   2.73186070039  -2.31110824654  7.15385981151
H   2.76977909318  -2.86133194451  5.75601312684
O   3.47485720912  -0.876611352378  -7.29730471606
H   3.4161294385  -0.238275592474  -6.58749976723
H   2.74593868923  -0.68952615174  -7.88746981089
H   1.89785393511  -0.0776764192192  -3.23006242795
H   2.53788154667  -0.434830469499  -3.50254672643
O   2.53051539991  -0.540462028671  0.0255944466682
H   1.59188892589  -0.474927294402  0.239965955478
H   2.61537597567  0.143821317216  -0.65485493376
H   3.88105010573  0.363949459996  3.13155569243
H   3.31196924602  0.861588309604  3.32619697769
O   2.36651145322  -0.27144925562  6.47248212299
H   2.46733563368  0.611421341738  6.81498278665
H   2.78122905526  -0.201270649579  5.60466208209
C   3.29325083537  2.52427962023  -7.3887192689
O   3.1782661567  2.51278820915  -6.23875292282
O   3.05012696869  2.67708901186  -3.12976776141
H   3.16564387498  3.77387250355  -2.96393275998
H   2.89092877874  2.62642324715  -4.0834175055
O   2.41662076121  2.16874489687  -0.439338907672
H   2.83553693447  2.33717878885  0.425299825465
H   2.60050592074  2.63073304974  -1.27454896391
O   2.58011944368  3.15804607877  2.6207795649
H   2.44279170626  3.40866895225  3.54656986038
H   2.75818144706  4.03144155699  2.26072104722
O   3.2543406062  2.25647360279  6.47377296477
H   3.85264130743  2.92357581897  6.85951188882
H   3.2792721424  2.39617721023  5.49942014421
H   3.05646421809  6.43875112636  -6.74308772909
H   3.00930637452  6.19824829476  -6.02273437507
O   3.40144620193  4.82096836146  -2.78287688846
H   3.14272228058  4.97010916376  -1.8658499575
H   2.7687443429  5.3081637391  -3.31357959787
O   1.86235582434  5.04242559711  -0.265754369829
H   2.12844887347  4.58806312184  0.552133473422
H   1.96024254109  5.95812545634  0.065837336824
O   2.96399760722  5.6645940048  2.09196718592
H   2.17365251982  5.98090567813  2.59193171469
H   3.43511075733  6.44558936775  1.73313736299
H   2.98075699576  6.22395198801  4.99922810399
C   2.99977432492  5.19598645393  5.36169316062
H   2.09660552491  4.67009645903  5.07811695134
H   3.8383464242  4.66883743333  4.91264772049
H   3.09549196665  5.20627489469  6.44862156584
O   5.66327004902  -6.6215424968  -6.7838642449
H   5.7904464918  -6.78354136789  -5.84440506652
H   5.83754930606  -5.68125253094  -6.8819050344
O   6.38947750121  -6.05245169852  -4.0745063218
H   5.68682343304  -6.00760099293  -3.41831571713
H   6.64834934111  -5.13236489016  -4.20800811251
C   7.20042402509  -8.51892434176  -0.0438507805553
O   7.36556888195  -7.40268628465  -0.0757076587752
O   5.93976491023  -6.13501659416  3.82098530123
H   5.71933628617  -6.06664277017  4.75405987199
H   6.27780763954  -5.26033471519  3.59184220435
O   5.95776757178  -6.66194501031  6.56443390962
H   6.49240324765  -6.02906439865  7.05457214887
H   6.49893644042  -7.45789529946  6.50092781989
O   5.50218824993  -3.73615690161  -6.67595670926
H   5.90565972237  -3.33444556897  -5.89643501284
H   4.55156426535  -3.58846223774  -6.60555473238
O   6.21114356579  -3.27778478061  -4.05363541719
H   5.14579014148  -3.4519143831  -3.90691287515
H   6.25211507878  -2.18782314969  -3.79640209107
H   6.22762502587  -3.67950970063  -1.8769912961
C   5.91708921474  -3.99016068062  -0.885775561359
H   4.9124975312  -4.40733782566  -0.932004881035
H   6.611226911  -4.73808667037  -0.508148035537
H   5.91452799857  -3.1198794682  -0.230787528275
O   6.11555233848  -3.40176260005  3.11749470846
H   6.07131763801  -2.56595739029  3.59802265624
H   6.70354993455  -3.19898017299  2.38152919059
H   6.75988891054  -2.13135988332  6.23427490398
C   6.13051800125  -2.908110121  6.65002253636
H   5.99579780919  -3.68626212895  5.90599437148
H   6.60244235621  -3.33643040701  7.5286011473
H   5.16299874081  -2.4967005723  6.9194719396
C   6.95047115584  0.286903014494  -8.17444809939
O   7.40454124941  -0.203087514189  -7.26332554902
O   6.34967669119  -1.13516773286  -3.56616770806
H   5.44960638134  -0.809603002232  -3.52967490579
H   6.70084939596  -0.822668697639  -4.39986877749
C   7.57835859406  0.352741235103  -0.306787962364
O   7.29434467119  0.139126969661  0.774864997799
O   6.81963633603  -0.733088639344  3.81615534116
H   6.39225994275  -0.145013115722  4.44204912412
H   6.71865338352  -0.298201929205  2.95431661596
O   5.15825367367  0.42002809991  6.46353862664
H   4.82417941161  1.33138900176  6.43308826561
H   5.34151432839  0.200787979597  5.54601623176
O   6.57994031153  3.36344474746  -6.77677786741
H   5.80135408652  3.92249181931  -6.723137629
H   7.29094561759  4.01025630173  -6.74904201371
H   6.34949771453  3.41887318712  -4.48244347566
C   6.23131793118  2.84156780892  -3.56965377392
H   5.23926047655  2.39852278027  -3.54651734658
H   6.98092461885  2.05614148284  -3.55032811713
H   6.35928475451  3.48853955378  -2.70596805868
H   4.87398821563  3.59304886311  0.0347034124877
H   5.16502446663  3.69138767139  0.735393227835
O   5.38788627258  2.61919655222  3.99112738337
H   4.77458477231  3.29121952878  3.69189910873
H   6.15574894155  2.96982305085  3.51999482025
O   5.77002509114  3.10078559465  6.10978348676
H   5.74569316928  4.07556966959  6.07681618013
H   5.59199346304  2.86425328482  5.04724364559
O   6.76509250719  6.02447033802  -6.33518319247
H   6.59484549976  6.08008264789  -5.38929326326
H   6.02650856156  6.47300500373  -6.74804169955
O   5.7636623134  6.7033653041  -3.76542156565
H   5.56039774576  5.89853235374  -3.2688413147
H   4.91502089275  7.00156225379  -4.11571260472
H   6.46855264874  6.81596893136  -0.742582131109
C   5.69863149103  6.59240004927  -0.0135988067224
H   4.86679039244  6.09905383763  -0.503748934962
H   6.09229013682  5.93319758538  0.751527658471
H   5.35561769117  7.51054979991  0.449512299485
O   5.44826683036  5.14361360676  3.32013632178
H   5.59368567194  5.40959111143  4.25028469651
H   4.50730568407  5.27274120811  3.12262157095
N   6.32339125722  5.86512066537  6.03727543201
H   6.03621733974  5.90528033967  7.01342595543
H   7.33825825969  5.84217635882  6.0559053078
H   6.0735386366  6.78444287539  5.68265371447
