30
Comment: ;;;Step 74;;;Energy -0.25207829121
O   -0.803145962132  -2.32393801483  1.16375849822
H   -1.18462906878  -3.05755112744  1.64596595709
H   -1.41094425413  -1.55728862437  1.26122589388
O   1.76316446851  -1.35483999607  1.35848784018
H   0.883056024321  -1.76283112263  1.42152122382
H   1.98700707921  -1.40838429497  0.413981932003
O   -2.31576361507  -0.152161413299  1.25703925349
H   -3.14787224055  0.0115259283642  1.70329279532
H   -1.76855977549  0.678653068469  1.36990820607
O   1.66415663864  1.21932807468  1.67708251707
H   1.69501152689  0.22471780342  1.62689913853
H   2.29885848428  1.480527248  2.34465546867
O   2.05553942977  -1.01547237817  -1.36304051433
H   1.97721657597  -0.0232968652168  -1.32734021811
H   2.81972137334  -1.21024778461  -1.9059363719
O   1.86755697058  1.56082730517  -1.07012502147
H   0.966853805132  1.86072013507  -1.28970628174
H   1.91324535184  1.62958645215  -0.102525288322
O   -2.07800279215  -0.0191239847135  -1.56421376894
H   -2.36940060924  -0.160982444156  -0.65135902534
H   -1.49411323095  -0.787603919374  -1.74207555598
O   -0.765179898359  2.19883402485  -1.34369372442
H   -1.14310672039  2.85562540923  -1.92879723686
H   -1.26380858081  1.3492439109  -1.50371897263
O   -0.923280792683  2.0100619437  1.40499510393
H   -0.000391985469245  1.799684217  1.63705815974
H   -0.88025306128  2.28941902312  0.47480960141
O   -0.431194827639  -2.15105598676  -1.62596938578
H   0.474155852145  -1.79700142427  -1.66132649704
H   -0.544798481692  -2.41713915834  -0.701790997279

30
Comment:
O        -0.7934448682   -2.3351449439    1.1780712614
H        -1.1494594669   -3.0807895361    1.6601366893
H        -1.4274549672   -1.5927101819    1.2840416845
O         1.7989338781   -1.3396211536    1.3640854844
H         0.9243915684   -1.7587962440    1.4154375188
H         2.0507671580   -1.4091241194    0.4269534658
O        -2.4012175126   -0.1810617334    1.2459168513
H        -3.1869819222   -0.0633483598    1.7791400761
H        -1.8490267009    0.6449451770    1.3647558572
O         1.6882822921    1.2625282777    1.6958259856
H         1.7347261099    0.2695062669    1.6525419575
H         2.3037830736    1.5415310701    2.3728390287
O         2.1218249704   -1.0703974788   -1.3694717854
H         2.0524213152   -0.0785350525   -1.3484546900
H         2.8627292218   -1.2861650432   -1.9346900890
O         1.8974661615    1.5313640091   -1.0777565941
H         1.0057147972    1.8498080404   -1.3040563132
H         1.9497237789    1.6209130922   -0.1126100863
O        -2.1351988188    0.0280528670   -1.5698563631
H        -2.4620049497   -0.1042893268   -0.6682615267
H        -1.5643079476   -0.7533411692   -1.7342721253
O        -0.7550146263    2.2292883891   -1.3566413167
H        -1.1085894516    2.8966088054   -1.9438141469
H        -1.2774472845    1.3930679666   -1.5195967170
O        -0.9528344390    1.9773572268    1.3904189286
H        -0.0283767730    1.7933309959    1.6345958386
H        -0.9082358707    2.2788015051    0.4663284391
O        -0.4536680332   -2.1052312534   -1.6284941692
H         0.4643184240   -1.7913567297   -1.6717082308
H        -0.5607214329   -2.3973553587   -0.7123421839
